<?xml version="1.0" encoding="UTF-8"?>
<!-- generated on 2024-03-23 14:25:32 by Eclipse SUMO netedit Version 1.16.0
-->
<routes xmlns:xsi="http://www.w3.org/2001/XMLSchema-instance" xsi:noNamespaceSchemaLocation="http://sumo.dlr.de/xsd/routes_file.xsd">
    <!-- Routes -->
    <route id="r_0" edges="e_0"/>
    <route id="r_1" edges="e_1"/>
    <!-- Vehicles, persons and containers (sorted by depart) -->
    <vType accel="3.0" decel="6.0" id="CarA" length="5.0" minGap="2.5" maxSpeed="50.0" sigma="0.5" />
<vehicle id="1" depart="0.04" departLane="2" departPos="409.62" departSpeed="20.08" color="227,114,22" route="r_1"/>
<vehicle id="2" depart="0.04" departLane="3" departPos="368.02" departSpeed="35.67" color="229,108,1" route="r_1"/>
<vehicle id="3" depart="0.04" departLane="2" departPos="359.52" departSpeed="34.51" color="214,225,135" route="r_0"/>
<vehicle id="4" depart="0.04" departLane="2" departPos="314.94" departSpeed="29.61" color="23,135,249" route="r_0"/>
<vehicle id="5" depart="0.04" departLane="2" departPos="307.03" departSpeed="23.61" color="236,195,149" route="r_1"/>
<vehicle id="6" depart="0.04" departLane="2" departPos="274.48" departSpeed="24.97" color="52,241,112" route="r_1"/>
<vehicle id="7" depart="0.04" departLane="2" departPos="185.22" departSpeed="34.41" color="51,255,227" route="r_0"/>
<vehicle id="8" depart="0.04" departLane="2" departPos="181.67000000000002" departSpeed="33.54" color="133,67,182" route="r_1"/>
<vehicle id="9" depart="0.04" departLane="2" departPos="139.73" departSpeed="35.07" color="145,82,30" route="r_0"/>
<vehicle id="10" depart="0.04" departLane="3" departPos="99.28000000000003" departSpeed="38.37" color="233,166,92" route="r_1"/>
<vehicle id="11" depart="0.04" departLane="2" departPos="217.39000000000001" departSpeed="23.5" color="101,4,193" route="r_1"/>
<vehicle id="12" depart="0.04" departLane="2" departPos="57.80000000000001" departSpeed="31.22" color="239,236,4" route="r_1"/>
<vehicle id="13" depart="0.04" departLane="1" departPos="46.660000000000025" departSpeed="24.73" color="68,100,69" route="r_1"/>
<vehicle id="14" depart="0.08" departLane="3" departPos="294.25" departSpeed="23.93" color="137,123,131" route="r_0"/>
<vehicle id="15" depart="0.08" departLane="1" departPos="234.70000000000002" departSpeed="20.61" color="195,61,14" route="r_1"/>
<vehicle id="16" depart="2.36" departLane="1" departPos="23.03000000000003" departSpeed="25.39" color="251,209,142" route="r_1"/>
<vehicle id="17" depart="2.6" departLane="2" departPos="8.490000000000009" departSpeed="38.05" color="252,30,185" route="r_1"/>
<vehicle id="18" depart="4.76" departLane="2" departPos="4.65" departSpeed="39.76" color="26,34,206" route="r_0"/>
<vehicle id="19" depart="5.52" departLane="2" departPos="9.639999999999986" departSpeed="37.35" color="11,95,6" route="r_1"/>
<vehicle id="20" depart="6.36" departLane="3" departPos="3.74" departSpeed="23.67" color="43,22,45" route="r_0"/>
<vehicle id="21" depart="6.56" departLane="2" departPos="9.220000000000027" departSpeed="38.17" color="127,165,201" route="r_1"/>
<vehicle id="22" depart="7.56" departLane="3" departPos="1.78" departSpeed="23.07" color="220,62,41" route="r_0"/>
<vehicle id="23" depart="7.76" departLane="2" departPos="2.37" departSpeed="36.22" color="201,104,160" route="r_0"/>
<vehicle id="24" depart="8.8" departLane="3" departPos="3.71" departSpeed="23.67" color="120,11,93" route="r_0"/>
<vehicle id="25" depart="9.04" departLane="2" departPos="25.189999999999998" departSpeed="25.7" color="154,200,142" route="r_1"/>
<vehicle id="26" depart="9.48" departLane="2" departPos="2.8" departSpeed="37.79" color="238,235,23" route="r_0"/>
<vehicle id="27" depart="9.84" departLane="3" departPos="8.220000000000027" departSpeed="29.11" color="43,74,93" route="r_1"/>
<vehicle id="28" depart="10.4" departLane="1" departPos="10.79000000000002" departSpeed="30.78" color="50,70,12" route="r_1"/>
<vehicle id="29" depart="10.84" departLane="2" departPos="3.52" departSpeed="35.12" color="201,213,216" route="r_0"/>
<vehicle id="30" depart="11.12" departLane="1" departPos="3.3" departSpeed="40.1" color="37,144,127" route="r_0"/>
<vehicle id="31" depart="14.56" departLane="2" departPos="3.68" departSpeed="34.36" color="231,253,8" route="r_0"/>
<vehicle id="32" depart="16.12" departLane="1" departPos="4.52" departSpeed="36.81" color="44,218,212" route="r_0"/>
<vehicle id="33" depart="16.28" departLane="3" departPos="4.8" departSpeed="25.42" color="168,160,102" route="r_0"/>
<vehicle id="34" depart="17.12" departLane="1" departPos="3.05" departSpeed="38.65" color="133,198,203" route="r_0"/>
<vehicle id="35" depart="17.12" departLane="2" departPos="3.89" departSpeed="30.27" color="20,61,154" route="r_0"/>
<vehicle id="36" depart="18.2" departLane="1" departPos="2.81" departSpeed="39.06" color="61,73,142" route="r_0"/>
<vehicle id="37" depart="18.72" departLane="2" departPos="3.46" departSpeed="36.9" color="15,168,189" route="r_0"/>
<vehicle id="38" depart="18.8" departLane="1" departPos="9.329999999999984" departSpeed="36.81" color="71,85,154" route="r_1"/>
<vehicle id="39" depart="19.32" departLane="3" departPos="3.51" departSpeed="24.68" color="72,82,74" route="r_0"/>
<vehicle id="40" depart="22.8" departLane="2" departPos="3.54" departSpeed="34.57" color="233,7,103" route="r_0"/>
<vehicle id="41" depart="24.6" departLane="2" departPos="2.47" departSpeed="33.92" color="13,18,54" route="r_0"/>
<vehicle id="42" depart="25.96" departLane="2" departPos="10.550000000000011" departSpeed="30.47" color="231,16,33" route="r_1"/>
<vehicle id="43" depart="26.08" departLane="3" departPos="10.120000000000005" departSpeed="40.26" color="43,27,50" route="r_1"/>
<vehicle id="44" depart="26.64" departLane="1" departPos="3.29" departSpeed="36.67" color="13,165,125" route="r_0"/>
<vehicle id="45" depart="28.6" departLane="2" departPos="9.189999999999998" departSpeed="38.81" color="70,178,28" route="r_1"/>
<vehicle id="46" depart="28.92" departLane="3" departPos="3.8" departSpeed="22.07" color="98,94,255" route="r_0"/>
<vehicle id="47" depart="29.76" departLane="2" departPos="4.06" departSpeed="25.08" color="220,241,162" route="r_0"/>
<vehicle id="48" depart="30.0" departLane="1" departPos="9.720000000000027" departSpeed="25.52" color="120,122,214" route="r_1"/>
<vehicle id="49" depart="31.24" departLane="3" departPos="4.49" departSpeed="25.01" color="82,233,14" route="r_0"/>
<vehicle id="50" depart="32.2" departLane="2" departPos="4.02" departSpeed="25.08" color="231,189,150" route="r_0"/>
<vehicle id="51" depart="33.68" departLane="1" departPos="13.70999999999998" departSpeed="25.77" color="65,217,163" route="r_1"/>
<vehicle id="52" depart="35.64" departLane="2" departPos="4.12" departSpeed="38.83" color="57,132,204" route="r_0"/>
<vehicle id="53" depart="37.48" departLane="3" departPos="4.68" departSpeed="25.02" color="255,34,255" route="r_0"/>
<vehicle id="54" depart="38.48" departLane="2" departPos="7.470000000000027" departSpeed="34.01" color="102,94,172" route="r_1"/>
<vehicle id="55" depart="38.76" departLane="1" departPos="5.64" departSpeed="39.79" color="23,50,25" route="r_0"/>
<vehicle id="56" depart="39.2" departLane="2" departPos="9.740000000000009" departSpeed="34.15" color="224,133,28" route="r_1"/>
<vehicle id="57" depart="40.24" departLane="3" departPos="4.66" departSpeed="25.07" color="131,119,33" route="r_0"/>
<vehicle id="58" depart="43.08" departLane="1" departPos="8.069999999999993" departSpeed="34.81" color="170,114,67" route="r_1"/>
<vehicle id="59" depart="43.96" departLane="2" departPos="2.27" departSpeed="30.38" color="93,169,14" route="r_0"/>
<vehicle id="60" depart="44.12" departLane="1" departPos="9.079999999999984" departSpeed="34.7" color="85,17,125" route="r_1"/>
<vehicle id="61" depart="45.04" departLane="2" departPos="8.230000000000018" departSpeed="38.32" color="228,57,67" route="r_1"/>
<vehicle id="62" depart="46.68" departLane="2" departPos="3.63" departSpeed="30.49" color="30,141,91" route="r_0"/>
<vehicle id="63" depart="47.08" departLane="1" departPos="9.769999999999982" departSpeed="35.0" color="208,84,191" route="r_1"/>
<vehicle id="64" depart="47.56" departLane="2" departPos="10.25" departSpeed="36.35" color="4,5,230" route="r_1"/>
<vehicle id="65" depart="49.88" departLane="2" departPos="2.36" departSpeed="33.49" color="92,25,27" route="r_0"/>
<vehicle id="66" depart="50.68" departLane="1" departPos="1.77" departSpeed="39.41" color="63,80,33" route="r_0"/>
<vehicle id="67" depart="51.88" departLane="3" departPos="10.259999999999991" departSpeed="38.58" color="203,118,88" route="r_1"/>
<vehicle id="68" depart="51.92" departLane="1" departPos="9.79000000000002" departSpeed="35.88" color="170,76,6" route="r_1"/>
<vehicle id="69" depart="53.0" departLane="3" departPos="9.160000000000025" departSpeed="36.85" color="66,78,190" route="r_1"/>
<vehicle id="70" depart="53.16" departLane="1" departPos="14.740000000000009" departSpeed="23.55" color="164,13,188" route="r_1"/>
<vehicle id="71" depart="53.88" departLane="3" departPos="2.72" departSpeed="28.93" color="88,116,221" route="r_0"/>
<vehicle id="72" depart="56.04" departLane="2" departPos="2.94" departSpeed="34.06" color="5,74,229" route="r_0"/>
<vehicle id="73" depart="56.48" departLane="1" departPos="3.47" departSpeed="38.77" color="226,36,61" route="r_0"/>
<vehicle id="74" depart="57.0" departLane="3" departPos="4.85" departSpeed="23.6" color="117,80,50" route="r_0"/>
<vehicle id="75" depart="57.76" departLane="1" departPos="2.8" departSpeed="37.87" color="51,216,27" route="r_0"/>
<vehicle id="76" depart="58.48" departLane="2" departPos="2.08" departSpeed="37.66" color="44,222,46" route="r_0"/>
<vehicle id="77" depart="58.64" departLane="2" departPos="12.20999999999998" departSpeed="24.43" color="115,122,68" route="r_1"/>
<vehicle id="78" depart="59.0" departLane="3" departPos="8.199999999999989" departSpeed="30.73" color="117,209,106" route="r_1"/>
<vehicle id="79" depart="59.92" departLane="3" departPos="8.139999999999986" departSpeed="30.84" color="83,107,47" route="r_1"/>
<vehicle id="80" depart="60.28" departLane="3" departPos="4.79" departSpeed="25.19" color="52,147,32" route="r_0"/>
<vehicle id="81" depart="60.72" departLane="2" departPos="10.20999999999998" departSpeed="30.04" color="212,207,168" route="r_1"/>
<vehicle id="82" depart="61.16" departLane="1" departPos="2.24" departSpeed="39.98" color="217,136,229" route="r_0"/>
<vehicle id="83" depart="61.44" departLane="2" departPos="46.72000000000003" departSpeed="23.84" color="63,73,46" route="r_1"/>
<vehicle id="84" depart="62.16" departLane="2" departPos="16.170000000000016" departSpeed="25.02" color="218,22,33" route="r_1"/>
<vehicle id="85" depart="64.84" departLane="1" departPos="3.26" departSpeed="36.97" color="248,105,2" route="r_0"/>
<vehicle id="86" depart="64.88" departLane="2" departPos="3.88" departSpeed="34.42" color="83,201,153" route="r_0"/>
<vehicle id="87" depart="67.12" departLane="2" departPos="10.360000000000014" departSpeed="34.4" color="74,126,37" route="r_1"/>
<vehicle id="88" depart="67.56" departLane="3" departPos="10.009999999999991" departSpeed="43.3" color="93,96,1" route="r_1"/>
<vehicle id="89" depart="69.04" departLane="2" departPos="2.97" departSpeed="34.01" color="255,8,22" route="r_0"/>
<vehicle id="90" depart="71.64" departLane="2" departPos="8.319999999999993" departSpeed="36.02" color="144,190,74" route="r_1"/>
<vehicle id="91" depart="72.96" departLane="3" departPos="5.21" departSpeed="24.82" color="22,37,201" route="r_0"/>
<vehicle id="92" depart="76.08" departLane="1" departPos="2.63" departSpeed="35.64" color="19,114,17" route="r_0"/>
<vehicle id="93" depart="76.64" departLane="3" departPos="5.53" departSpeed="24.42" color="119,144,2" route="r_0"/>
<vehicle id="94" depart="78.28" departLane="1" departPos="3.46" departSpeed="38.31" color="227,175,111" route="r_0"/>
<vehicle id="95" depart="78.6" departLane="3" departPos="9.53000000000003" departSpeed="40.44" color="56,149,118" route="r_1"/>
<vehicle id="96" depart="79.56" departLane="2" departPos="4.67" departSpeed="25.16" color="128,142,175" route="r_0"/>
<vehicle id="97" depart="79.84" departLane="3" departPos="5.05" departSpeed="24.33" color="167,42,160" route="r_0"/>
<vehicle id="98" depart="80.04" departLane="2" departPos="25.20999999999998" departSpeed="23.95" color="36,197,119" route="r_1"/>
<vehicle id="99" depart="80.76" departLane="2" departPos="2.08" departSpeed="27.26" color="215,226,230" route="r_0"/>
<vehicle id="100" depart="80.92" departLane="3" departPos="8.649999999999977" departSpeed="37.49" color="10,88,195" route="r_1"/>
<vehicle id="101" depart="81.16" departLane="1" departPos="2.17" departSpeed="37.7" color="100,58,144" route="r_0"/>
<vehicle id="102" depart="81.32" departLane="2" departPos="23.439999999999998" departSpeed="24.01" color="153,218,102" route="r_1"/>
<vehicle id="103" depart="81.84" departLane="2" departPos="3.84" departSpeed="29.54" color="234,184,86" route="r_0"/>
<vehicle id="104" depart="81.92" departLane="1" departPos="2.77" departSpeed="36.72" color="159,250,16" route="r_0"/>
<vehicle id="105" depart="82.0" departLane="3" departPos="8.730000000000018" departSpeed="33.65" color="159,121,246" route="r_1"/>
<vehicle id="106" depart="82.32" departLane="2" departPos="9.930000000000007" departSpeed="23.32" color="69,210,67" route="r_1"/>
<vehicle id="107" depart="83.64" departLane="2" departPos="2.72" departSpeed="32.63" color="28,211,105" route="r_0"/>
<vehicle id="108" depart="83.68" departLane="1" departPos="2.7" departSpeed="36.4" color="59,3,102" route="r_0"/>
<vehicle id="109" depart="84.2" departLane="2" departPos="9.769999999999982" departSpeed="27.62" color="80,180,140" route="r_1"/>
<vehicle id="110" depart="85.8" departLane="1" departPos="9.03000000000003" departSpeed="34.07" color="153,173,49" route="r_1"/>
<vehicle id="111" depart="87.48" departLane="3" departPos="78.63" departSpeed="34.39" color="143,254,137" route="r_1"/>
<vehicle id="112" depart="87.84" departLane="3" departPos="3.59" departSpeed="30.02" color="76,235,14" route="r_0"/>
<vehicle id="113" depart="88.72" departLane="2" departPos="2.77" departSpeed="38.33" color="30,255,11" route="r_0"/>
<vehicle id="114" depart="88.92" departLane="2" departPos="9.04000000000002" departSpeed="35.91" color="215,233,170" route="r_1"/>
<vehicle id="115" depart="90.4" departLane="1" departPos="14.170000000000016" departSpeed="25.73" color="241,202,41" route="r_1"/>
<vehicle id="116" depart="90.64" departLane="1" departPos="2.48" departSpeed="36.69" color="100,55,80" route="r_0"/>
<vehicle id="117" depart="92.0" departLane="3" departPos="9.420000000000016" departSpeed="38.55" color="254,194,213" route="r_1"/>
<vehicle id="118" depart="92.56" departLane="2" departPos="10.970000000000027" departSpeed="34.82" color="205,26,217" route="r_1"/>
<vehicle id="119" depart="94.92" departLane="1" departPos="4.39" departSpeed="51.21" color="147,242,89" route="r_0"/>
<vehicle id="120" depart="95.8" departLane="3" departPos="1.67" departSpeed="33.09" color="57,218,206" route="r_0"/>
<vehicle id="121" depart="97.6" departLane="3" departPos="10.920000000000016" departSpeed="40.16" color="239,32,218" route="r_1"/>
<vehicle id="122" depart="98.36" departLane="3" departPos="2.76" departSpeed="28.78" color="192,239,41" route="r_0"/>
<vehicle id="123" depart="98.72" departLane="2" departPos="21.590000000000032" departSpeed="25.39" color="133,234,176" route="r_1"/>
<vehicle id="124" depart="100.84" departLane="2" departPos="9.060000000000002" departSpeed="37.23" color="167,147,46" route="r_1"/>
<vehicle id="125" depart="102.16" departLane="1" departPos="15.220000000000027" departSpeed="23.46" color="211,119,194" route="r_1"/>
<vehicle id="126" depart="103.8" departLane="3" departPos="3.63" departSpeed="27.81" color="60,122,108" route="r_0"/>
<vehicle id="127" depart="105.04" departLane="2" departPos="2.37" departSpeed="36.13" color="29,246,97" route="r_0"/>
<vehicle id="128" depart="111.24" departLane="2" departPos="4.33" departSpeed="36.04" color="66,207,30" route="r_0"/>
<vehicle id="129" depart="111.8" departLane="3" departPos="5.7" departSpeed="31.01" color="141,194,213" route="r_0"/>
<vehicle id="130" depart="114.12" departLane="3" departPos="2.39" departSpeed="30.31" color="203,153,28" route="r_0"/>
<vehicle id="131" depart="114.32" departLane="2" departPos="2.57" departSpeed="34.71" color="39,99,122" route="r_0"/>
<vehicle id="132" depart="115.24" departLane="1" departPos="1.8" departSpeed="36.16" color="119,174,75" route="r_0"/>
<vehicle id="133" depart="115.32" departLane="1" departPos="8.45999999999998" departSpeed="27.14" color="9,232,91" route="r_1"/>
<vehicle id="134" depart="117.36" departLane="1" departPos="2.21" departSpeed="35.52" color="71,90,49" route="r_0"/>
<vehicle id="135" depart="118.2" departLane="3" departPos="3.6" departSpeed="24.43" color="251,25,221" route="r_0"/>
<vehicle id="136" depart="118.44" departLane="1" departPos="3.78" departSpeed="31.88" color="131,226,101" route="r_0"/>
<vehicle id="137" depart="119.76" departLane="2" departPos="3.95" departSpeed="33.83" color="90,93,127" route="r_0"/>
<vehicle id="138" depart="120.92" departLane="3" departPos="4.43" departSpeed="23.05" color="80,66,140" route="r_0"/>
<vehicle id="139" depart="121.56" departLane="2" departPos="4.61" departSpeed="25.73" color="156,143,177" route="r_0"/>
<vehicle id="140" depart="122.72" departLane="2" departPos="3.73" departSpeed="25.25" color="7,240,129" route="r_0"/>
<vehicle id="141" depart="122.96" departLane="1" departPos="3.6" departSpeed="35.75" color="106,101,1" route="r_0"/>
<vehicle id="142" depart="124.04" departLane="1" departPos="2.37" departSpeed="34.53" color="201,94,31" route="r_0"/>
<vehicle id="143" depart="124.08" departLane="2" departPos="2.89" departSpeed="25.62" color="196,148,5" route="r_0"/>
<vehicle id="144" depart="124.32" departLane="3" departPos="5.24" departSpeed="25.01" color="250,252,160" route="r_0"/>
<vehicle id="145" depart="125.08" departLane="1" departPos="2.34" departSpeed="34.95" color="176,198,102" route="r_0"/>
<vehicle id="146" depart="126.04" departLane="3" departPos="4.87" departSpeed="24.85" color="129,174,212" route="r_0"/>
<vehicle id="147" depart="126.84" departLane="1" departPos="1.77" departSpeed="35.31" color="189,184,192" route="r_0"/>
<vehicle id="148" depart="127.32" departLane="2" departPos="1.64" departSpeed="28.28" color="105,84,176" route="r_0"/>
<vehicle id="149" depart="129.44" departLane="2" departPos="9.370000000000005" departSpeed="43.36" color="248,167,176" route="r_1"/>
<vehicle id="150" depart="129.52" departLane="3" departPos="3.19" departSpeed="24.84" color="171,140,133" route="r_0"/>
<vehicle id="151" depart="130.12" departLane="2" departPos="8.590000000000032" departSpeed="36.77" color="3,26,25" route="r_1"/>
<vehicle id="152" depart="130.16" departLane="2" departPos="4.38" departSpeed="28.71" color="178,89,172" route="r_0"/>
<vehicle id="153" depart="131.32" departLane="1" departPos="3.36" departSpeed="33.72" color="103,243,217" route="r_0"/>
<vehicle id="154" depart="131.36" departLane="2" departPos="9.990000000000009" departSpeed="37.83" color="31,113,229" route="r_1"/>
<vehicle id="155" depart="132.24" departLane="1" departPos="23.04000000000002" departSpeed="25.52" color="28,110,25" route="r_1"/>
<vehicle id="156" depart="133.6" departLane="2" departPos="2.07" departSpeed="28.9" color="64,56,218" route="r_0"/>
<vehicle id="157" depart="134.0" departLane="2" departPos="7.720000000000027" departSpeed="35.45" color="158,174,11" route="r_1"/>
<vehicle id="158" depart="134.92" departLane="3" departPos="4.25" departSpeed="23.66" color="147,119,152" route="r_0"/>
<vehicle id="159" depart="135.04" departLane="1" departPos="8.75" departSpeed="35.86" color="7,11,93" route="r_1"/>
<vehicle id="160" depart="135.36" departLane="2" departPos="1.66" departSpeed="29.23" color="5,210,181" route="r_0"/>
<vehicle id="161" depart="135.52" departLane="1" departPos="2.57" departSpeed="34.3" color="72,214,217" route="r_0"/>
<vehicle id="162" depart="137.32" departLane="2" departPos="9.720000000000027" departSpeed="34.64" color="231,103,93" route="r_1"/>
<vehicle id="163" depart="137.32" departLane="1" departPos="23.399999999999977" departSpeed="25.25" color="250,15,109" route="r_1"/>
<vehicle id="164" depart="138.4" departLane="2" departPos="8.899999999999977" departSpeed="36.31" color="34,101,39" route="r_1"/>
<vehicle id="165" depart="138.8" departLane="2" departPos="2.0" departSpeed="30.21" color="150,144,233" route="r_0"/>
<vehicle id="166" depart="139.36" departLane="3" departPos="10.5" departSpeed="48.47" color="9,94,73" route="r_1"/>
<vehicle id="167" depart="139.36" departLane="3" departPos="3.61" departSpeed="23.3" color="102,159,151" route="r_0"/>
<vehicle id="168" depart="139.88" departLane="2" departPos="25.560000000000002" departSpeed="25.81" color="62,229,70" route="r_1"/>
<vehicle id="169" depart="142.88" departLane="3" departPos="2.73" departSpeed="24.86" color="125,6,29" route="r_0"/>
<vehicle id="170" depart="146.48" departLane="3" departPos="4.1" departSpeed="24.9" color="171,78,109" route="r_0"/>
<vehicle id="171" depart="148.24" departLane="2" departPos="3.2" departSpeed="33.41" color="50,150,225" route="r_0"/>
<vehicle id="172" depart="148.24" departLane="2" departPos="22.819999999999993" departSpeed="24.32" color="8,52,9" route="r_1"/>
<vehicle id="173" depart="148.48" departLane="1" departPos="4.04" departSpeed="36.84" color="38,152,214" route="r_0"/>
<vehicle id="174" depart="150.08" departLane="3" departPos="9.329999999999984" departSpeed="37.15" color="229,0,24" route="r_1"/>
<vehicle id="175" depart="150.24" departLane="2" departPos="14.0" departSpeed="24.09" color="48,191,141" route="r_1"/>
<vehicle id="176" depart="152.2" departLane="3" departPos="3.08" departSpeed="24.23" color="206,239,43" route="r_0"/>
<vehicle id="177" depart="153.68" departLane="1" departPos="2.9" departSpeed="33.85" color="172,135,202" route="r_0"/>
<vehicle id="178" depart="154.28" departLane="1" departPos="1.83" departSpeed="36.85" color="12,6,36" route="r_0"/>
<vehicle id="179" depart="154.92" departLane="2" departPos="4.58" departSpeed="25.43" color="245,140,18" route="r_0"/>
<vehicle id="180" depart="155.64" departLane="3" departPos="4.49" departSpeed="24.46" color="180,200,169" route="r_0"/>
<vehicle id="181" depart="156.64" departLane="2" departPos="23.129999999999995" departSpeed="25.7" color="8,126,245" route="r_1"/>
<vehicle id="182" depart="156.92" departLane="3" departPos="8.399999999999977" departSpeed="38.94" color="107,98,154" route="r_1"/>
<vehicle id="183" depart="161.96" departLane="2" departPos="13.990000000000009" departSpeed="23.01" color="101,150,155" route="r_1"/>
<vehicle id="184" depart="162.44" departLane="2" departPos="2.18" departSpeed="33.86" color="59,249,57" route="r_0"/>
<vehicle id="185" depart="163.92" departLane="3" departPos="8.70999999999998" departSpeed="33.96" color="90,248,153" route="r_1"/>
<vehicle id="186" depart="164.28" departLane="3" departPos="4.36" departSpeed="24.46" color="212,0,153" route="r_0"/>
<vehicle id="187" depart="165.52" departLane="3" departPos="7.980000000000018" departSpeed="39.76" color="21,177,214" route="r_1"/>
<vehicle id="188" depart="165.92" departLane="2" departPos="12.050000000000011" departSpeed="25.52" color="87,66,162" route="r_1"/>
<vehicle id="189" depart="169.44" departLane="2" departPos="11.25" departSpeed="34.07" color="37,230,181" route="r_1"/>
<vehicle id="190" depart="169.64" departLane="2" departPos="3.93" departSpeed="41.03" color="87,112,73" route="r_0"/>
<vehicle id="191" depart="169.92" departLane="1" departPos="3.66" departSpeed="46.41" color="98,165,120" route="r_0"/>
<vehicle id="192" depart="170.28" departLane="2" departPos="1.69" departSpeed="37.1" color="164,8,197" route="r_0"/>
<vehicle id="193" depart="170.8" departLane="3" departPos="5.1" departSpeed="25.89" color="61,79,133" route="r_0"/>
<vehicle id="194" depart="171.0" departLane="2" departPos="11.300000000000011" departSpeed="26.53" color="2,33,43" route="r_1"/>
<vehicle id="195" depart="171.48" departLane="2" departPos="2.66" departSpeed="35.44" color="122,27,115" route="r_0"/>
<vehicle id="196" depart="172.0" departLane="1" departPos="3.37" departSpeed="40.35" color="136,8,201" route="r_0"/>
<vehicle id="197" depart="174.16" departLane="1" departPos="10.0" departSpeed="33.27" color="118,144,201" route="r_1"/>
<vehicle id="198" depart="178.44" departLane="1" departPos="8.829999999999984" departSpeed="40.2" color="240,206,40" route="r_1"/>
<vehicle id="199" depart="178.44" departLane="2" departPos="8.470000000000027" departSpeed="36.6" color="62,10,226" route="r_1"/>
<vehicle id="200" depart="179.44" departLane="1" departPos="9.350000000000023" departSpeed="38.77" color="93,144,171" route="r_1"/>
<vehicle id="201" depart="180.68" departLane="2" departPos="10.009999999999991" departSpeed="38.41" color="106,250,181" route="r_1"/>
<vehicle id="202" depart="181.68" departLane="3" departPos="9.180000000000007" departSpeed="37.38" color="234,125,198" route="r_1"/>
<vehicle id="203" depart="181.72" departLane="3" departPos="2.64" departSpeed="28.28" color="144,148,99" route="r_0"/>
<vehicle id="204" depart="182.12" departLane="1" departPos="24.00999999999999" departSpeed="25.53" color="16,248,160" route="r_1"/>
<vehicle id="205" depart="183.4" departLane="2" departPos="23.360000000000014" departSpeed="25.67" color="11,33,191" route="r_1"/>
<vehicle id="206" depart="184.68" departLane="1" departPos="23.319999999999993" departSpeed="24.55" color="14,218,187" route="r_1"/>
<vehicle id="207" depart="185.36" departLane="2" departPos="16.410000000000025" departSpeed="24.71" color="236,146,182" route="r_1"/>
<vehicle id="208" depart="186.8" departLane="3" departPos="3.35" departSpeed="34.48" color="73,200,103" route="r_0"/>
<vehicle id="209" depart="187.12" departLane="3" departPos="8.78000000000003" departSpeed="29.66" color="167,81,13" route="r_1"/>
<vehicle id="210" depart="187.92" departLane="2" departPos="2.97" departSpeed="35.12" color="106,29,55" route="r_0"/>
<vehicle id="211" depart="187.96" departLane="3" departPos="8.620000000000005" departSpeed="29.18" color="148,184,219" route="r_1"/>
<vehicle id="212" depart="188.68" departLane="3" departPos="7.590000000000032" departSpeed="31.07" color="33,96,251" route="r_1"/>
<vehicle id="213" depart="188.72" departLane="2" departPos="16.970000000000027" departSpeed="24.33" color="175,207,157" route="r_1"/>
<vehicle id="214" depart="189.04" departLane="3" departPos="4.55" departSpeed="23.58" color="160,240,1" route="r_0"/>
<vehicle id="215" depart="189.52" departLane="1" departPos="23.53000000000003" departSpeed="23.68" color="0,180,71" route="r_1"/>
<vehicle id="216" depart="190.16" departLane="3" departPos="9.45999999999998" departSpeed="34.83" color="149,22,231" route="r_1"/>
<vehicle id="217" depart="190.32" departLane="1" departPos="8.480000000000018" departSpeed="23.82" color="229,77,91" route="r_1"/>
<vehicle id="218" depart="190.84" departLane="2" departPos="2.74" departSpeed="26.43" color="229,70,145" route="r_0"/>
<vehicle id="219" depart="192.12" departLane="3" departPos="2.56" departSpeed="26.35" color="1,78,8" route="r_0"/>
<vehicle id="220" depart="192.84" departLane="1" departPos="23.53000000000003" departSpeed="22.64" color="241,44,44" route="r_1"/>
<vehicle id="221" depart="193.88" departLane="2" departPos="10.480000000000018" departSpeed="32.35" color="190,77,25" route="r_1"/>
<vehicle id="222" depart="194.44" departLane="1" departPos="20.54000000000002" departSpeed="24.55" color="117,46,89" route="r_1"/>
<vehicle id="223" depart="197.48" departLane="2" departPos="22.78000000000003" departSpeed="24.44" color="159,164,18" route="r_1"/>
<vehicle id="224" depart="198.4" departLane="1" departPos="8.939999999999998" departSpeed="27.4" color="15,70,100" route="r_1"/>
<vehicle id="225" depart="198.44" departLane="2" departPos="3.89" departSpeed="35.28" color="145,83,84" route="r_0"/>
<vehicle id="226" depart="199.16" departLane="2" departPos="2.07" departSpeed="32.56" color="186,74,229" route="r_0"/>
<vehicle id="227" depart="200.72" departLane="1" departPos="2.97" departSpeed="35.8" color="65,105,227" route="r_0"/>
<vehicle id="228" depart="201.52" departLane="2" departPos="14.220000000000027" departSpeed="35.7" color="82,168,39" route="r_1"/>
<vehicle id="229" depart="202.56" departLane="1" departPos="12.180000000000007" departSpeed="23.04" color="191,78,109" route="r_1"/>
<vehicle id="230" depart="203.12" departLane="2" departPos="2.07" departSpeed="38.63" color="29,209,184" route="r_0"/>
<vehicle id="231" depart="207.48" departLane="3" departPos="3.17" departSpeed="34.77" color="74,9,190" route="r_0"/>
<vehicle id="232" depart="207.84" departLane="3" departPos="9.509999999999991" departSpeed="37.07" color="167,214,15" route="r_1"/>
<vehicle id="233" depart="208.12" departLane="2" departPos="24.870000000000005" departSpeed="25.9" color="112,98,40" route="r_1"/>
<vehicle id="234" depart="208.2" departLane="2" departPos="2.9" departSpeed="38.81" color="13,85,34" route="r_0"/>
<vehicle id="235" depart="210.04" departLane="1" departPos="8.560000000000002" departSpeed="29.36" color="178,4,211" route="r_1"/>
<vehicle id="236" depart="211.84" departLane="1" departPos="2.56" departSpeed="42.5" color="14,147,85" route="r_0"/>
<vehicle id="237" depart="212.88" departLane="3" departPos="4.12" departSpeed="23.41" color="96,181,227" route="r_0"/>
<vehicle id="238" depart="213.52" departLane="2" departPos="3.35" departSpeed="34.4" color="163,117,14" route="r_0"/>
<vehicle id="239" depart="213.56" departLane="1" departPos="3.41" departSpeed="40.59" color="69,179,52" route="r_0"/>
<vehicle id="240" depart="215.52" departLane="3" departPos="3.72" departSpeed="23.67" color="66,117,147" route="r_0"/>